/*--------------------------------*- C++ -*----------------------------------*\
| =========                 |                                                 |
| \\      /  F ield         | OpenFOAM: The Open Source CFD Toolbox           |
|  \\    /   O peration     | Version:  v1812                                 |
|   \\  /    A nd           | Web:      www.OpenFOAM.com                      |
|    \\/     M anipulation  |                                                 |
\*---------------------------------------------------------------------------*/
FoamFile
{
    version     2.0;
    format      ascii;
    class       polyBoundaryMesh;
    location    "constant/polyMesh";
    object      boundary;
}
// * * * * * * * * * * * * * * * * * * * * * * * * * * * * * * * * * * * * * //

5
(
    inlet
    {
        type            patch;
        nFaces          30;
        startFace       5870;
    }
    outlet
    {
        type            patch;
        nFaces          10;
        startFace       5900;
    }
    wallBoundary
    {
        type            wall;
        inGroups        1(wall);
        nFaces          120;
        startFace       5910;
    }
    symmetricBoundary
    {
        type            symmetry;
        inGroups        1(symmetry);
        nFaces          100;
        startFace       6030;
    }
    frontAndBack
    {
        type            symmetry;
        inGroups        1(symmetry);
        nFaces          6000;
        startFace       6130;
    }
)

// ************************************************************************* //
