/*--------------------------------*- C++ -*----------------------------------*\
| =========                 |                                                 |
| \\      /  F ield         | OpenFOAM: The Open Source CFD Toolbox           |
|  \\    /   O peration     | Version:  v1812                                 |
|   \\  /    A nd           | Web:      www.OpenFOAM.com                      |
|    \\/     M anipulation  |                                                 |
\*---------------------------------------------------------------------------*/
FoamFile
{
    version     2.0;
    format      ascii;
    class       dictionary;
    object      blockMeshDict;
}
// * * * * * * * * * * * * * * * * * * * * * * * * * * * * * * * * * * * * * //

convertToMeters 0.001;

vertices
(
    (0 0 1)     //  00番目の端点座標
    (30 0 1)    //  01番目の端点座標
    (30 0 0)    //  02番目の端点座標
    (0 0 0)     //  03番目の端点座標
    (0 5 1)     //  04番目の端点座標
    (30 5 1)    //  05番目の端点座標
    (30 5 0)    //  06番目の端点座標
    (0 5 0)     //  07番目の端点座標
    (0 15 1)    //  08番目の端点座標
    (30 15 1)   //  09番目の端点座標
    (30 15 0)   //  10番目の端点座標
    (0 15 0)    //  11番目の端点座標
);

blocks
(
    hex (3 2 6 7 0 1 5 4)   (100 10 1)  simpleGrading (1 1 1)
    hex (7 6 10 11 4 5 9 8) (100 20 1)  simpleGrading (1 1 1)
);

edges
(
);

boundary
(
    inlet
    {
        type patch;
        faces
        (
            (0 4 7 3)
            (4 8 11 7)
        );
    }
    outlet
    {
        type patch;
        faces
        (
            (1 2 6 5)
        );
    }
    wallBoundary
    {
        type wall;
        faces
        (
            (8 9 10 11)
            (5 6 10 9)
        );
    }
    symmetricBoundary
    {
        type symmetry;
        faces
        (
            (0 3 2 1)
        );
    }
    frontAndBack
    {
        type symmetry;
        faces
        (
            (0 1 5 4)
            (4 5 9 8)
            (2 3 7 6)
            (6 7 11 10)
        );
    }
);

// ************************************************************************* //
